rawData/ieee11-caseThree-shuntSusceptance-injectedRealPowers-cdf.txt
 ??/??/?? UW ARCHIVE           100.0  IEEE 11 Bus Test Case
BUS DATA FOLLOWS                            11 ITEMS
   1 Bus 1     HV  1  1  3 1.030  20.20      0.0      0.0    700.0   185.0     0.0  1.030     0.0     0.0   0.0    0.0        0
   2 Bus 2     HV  1  1  0 1.010  10.86      0.0      0.0    700.0     0.0     0.0  1.000     0.0     0.0   0.0    0.3        0
   3 Bus 3     HV  2  1  0 1.030   1.18      0.0      0.0    720.0     0.0     0.0  1.000     0.0     0.0   0.0    1.3        0
   4 Bus 4     HV  2  1  0 1.010  -8.88      0.0      0.0    700.0     0.0     0.0  1.000     0.0     0.0   0.0    1.0        0
   5 Bus 5     HV  1  1  0 1.020  13.90      0.0      0.0      0.0     0.0     0.0  1.000     0.0     0.0   0.0    0.0        0
   6 Bus 6     LV  1  1  0 1.012   4.30      0.0      0.0      0.0     0.0     0.0  1.000     0.0     0.0   0.0    0.0        0
   7 Bus 7     ZV  1  1  0 1.021  -3.45    967.0    100.0      0.0     0.0     0.0  1.000     0.0     0.0   0.0    4.0        0
   8 Bus 8     TV  3  1  0 1.010 -11.46      0.0      0.0      0.0     0.0     0.0  1.000     0.0     0.0   0.0    0.0        0
   9 Bus 9     LV  2  1  0 1.002 -23.60   1767.0    100.0      0.0     0.0     0.0  1.000     0.0     0.0   0.0    4.0        0
  10 Bus 10    LV  2  1  0 1.001 -15.51      0.0      0.0      0.0     0.0     0.0  1.000     0.0     0.0   0.0    0.0        0
  11 Bus 11    LV  2  1  0 1.015  -5.40      0.0      0.0      0.0     0.0     0.0  1.000     0.0     0.0   0.0    0.0        0
-999 
BRANCH DATA FOLLOWS                         10 ITEMS
   1    5  1  1 1 0  0.00000   0.01667     0.0        0     0     0    0 0  0.0       0.0 0.0    0.0     0.0    0.0   0.0
   2    6  1  1 1 0  0.00000   0.01667     0.0        0     0     0    0 0  0.0       0.0 0.0    0.0     0.0    0.0   0.0
   3   11  2  1 1 0  0.00000   0.01667     0.0        0     0     0    0 0  0.0       0.0 0.0    0.0     0.0    0.0   0.0
   4   10  2  1 1 0  0.00000   0.01667     0.0        0     0     0    0 0  0.0       0.0 0.0    0.0     0.0    0.0   0.0
   5    6  1  1 1 0  0.00250   0.02500     0.04375    0     0     0    0 0  0.0       0.0 0.0    0.0     0.0    0.0   0.0
   6    7  1  1 1 0  0.00100   0.01000     0.01750    0     0     0    0 0  0.0       0.0 0.0    0.0     0.0    0.0   0.0
   7    8  1  1 1 0  0.00367   0.03667     0.57750    0     0     0    0 0  0.0       0.0 0.0    0.0     0.0    0.0   0.0
   8    9  2  1 1 0  0.00550   0.05500     0.38500    0     0     0    0 0  0.0       0.0 0.0    0.0     0.0    0.0   0.0
   9   10  2  1 1 0  0.00100   0.01000     0.01750    0     0     0    0 0  0.0       0.0 0.0    0.0     0.0    0.0   0.0
  10   11  2  1 1 0  0.00250   0.02500     0.04375    0     0     0    0 0  0.0       0.0 0.0    0.0     0.0    0.0   0.0
-999
LOSS ZONES FOLLOWS                     1 ITEMS
  1 IEEE 9 BUS
-99
INTERCHANGE DATA FOLLOWS                 1 ITEMS
 1    2 Bus 2     HV    0.0  999.99  IEEE11  IEEE 11 Bus Test Case
-9
TIE LINES FOLLOWS                     0 ITEMS
-999
END OF DATA
